<?xml version="1.0" encoding="UTF-8"?>

<!-- generated on 2023-05-17 14:24:30 by Eclipse SUMO netedit Version 1.17.0
<configuration xmlns:xsi="http://www.w3.org/2001/XMLSchema-instance" xsi:noNamespaceSchemaLocation="http://sumo.dlr.de/xsd/netconvertConfiguration.xsd">

    <input>
        <sumo-net-file value="C:\user\pythonproject\drl test\TLCS\intersection\environment.net.xml"/>
    </input>

    <output>
        <output-file value="C:\user\pythonproject\drl test\TLCS\intersection\environment.net.xml"/>
    </output>

    <processing>
        <geometry.min-radius.fix.railways value="false"/>
        <geometry.max-grade.fix value="false"/>
        <offset.disable-normalization value="true"/>
        <lefthand value="0"/>
    </processing>

    <junctions>
        <no-turnarounds value="true"/>
        <junctions.corner-detail value="5"/>
        <junctions.limit-turn-speed value="5.50"/>
        <rectangular-lane-cut value="0"/>
    </junctions>

    <pedestrian>
        <walkingareas value="0"/>
    </pedestrian>

</configuration>
-->

<net version="1.16" junctionCornerDetail="5" limitTurnSpeed="5.50" xmlns:xsi="http://www.w3.org/2001/XMLSchema-instance" xsi:noNamespaceSchemaLocation="http://sumo.dlr.de/xsd/net_file.xsd">

    <location netOffset="0.00,0.00" convBoundary="-309.74,-258.46,309.84,309.41" origBoundary="-10000000000.00,-10000000000.00,10000000000.00,10000000000.00" projParameter="!"/>

    <edge id=":Light_0" function="internal">
        <lane id=":Light_0_0" index="0" speed="6.51" length="9.03" shape="-11.20,16.80 -11.55,14.35 -12.60,12.60 -14.35,11.55 -16.80,11.20"/>
    </edge>
    <edge id=":Light_1" function="internal">
        <lane id=":Light_1_0" index="0" speed="13.89" length="33.60" shape="-11.20,16.80 -11.20,-16.80"/>
        <lane id=":Light_1_1" index="1" speed="13.89" length="33.60" shape="-8.00,16.80 -8.00,-16.80"/>
        <lane id=":Light_1_2" index="2" speed="13.89" length="33.60" shape="-4.80,16.80 -4.80,-16.80"/>
    </edge>
    <edge id=":Light_4" function="internal">
        <lane id=":Light_4_0" index="0" speed="11.36" length="29.67" shape="-1.60,16.80 -0.45,8.75 3.00,3.00 8.75,-0.45 16.80,-1.60"/>
    </edge>
    <edge id=":Light_5" function="internal">
        <lane id=":Light_5_0" index="0" speed="6.51" length="9.03" shape="16.80,11.20 14.35,11.55 12.60,12.60 11.55,14.35 11.20,16.80"/>
    </edge>
    <edge id=":Light_6" function="internal">
        <lane id=":Light_6_0" index="0" speed="13.89" length="33.60" shape="16.80,11.20 -16.80,11.20"/>
        <lane id=":Light_6_1" index="1" speed="13.89" length="33.60" shape="16.80,8.00 -16.80,8.00"/>
        <lane id=":Light_6_2" index="2" speed="13.89" length="33.60" shape="16.80,4.80 -16.80,4.80"/>
    </edge>
    <edge id=":Light_9" function="internal">
        <lane id=":Light_9_0" index="0" speed="11.36" length="29.67" shape="16.80,1.60 8.75,0.45 3.00,-3.00 -0.45,-8.75 -1.60,-16.80"/>
    </edge>
    <edge id=":Light_10" function="internal">
        <lane id=":Light_10_0" index="0" speed="6.51" length="9.03" shape="11.20,-16.80 11.55,-14.35 12.60,-12.60 14.35,-11.55 16.80,-11.20"/>
    </edge>
    <edge id=":Light_11" function="internal">
        <lane id=":Light_11_0" index="0" speed="13.89" length="33.60" shape="11.20,-16.80 11.20,16.80"/>
        <lane id=":Light_11_1" index="1" speed="13.89" length="33.60" shape="8.00,-16.80 8.00,16.80"/>
        <lane id=":Light_11_2" index="2" speed="13.89" length="33.60" shape="4.80,-16.80 4.80,16.80"/>
    </edge>
    <edge id=":Light_14" function="internal">
        <lane id=":Light_14_0" index="0" speed="11.36" length="29.67" shape="1.60,-16.80 0.45,-8.75 -3.00,-3.00 -8.75,0.45 -16.80,1.60"/>
    </edge>
    <edge id=":Light_15" function="internal">
        <lane id=":Light_15_0" index="0" speed="6.51" length="9.03" shape="-16.80,-11.20 -14.35,-11.55 -12.60,-12.60 -11.55,-14.35 -11.20,-16.80"/>
    </edge>
    <edge id=":Light_16" function="internal">
        <lane id=":Light_16_0" index="0" speed="13.89" length="33.60" shape="-16.80,-11.20 16.80,-11.20"/>
        <lane id=":Light_16_1" index="1" speed="13.89" length="33.60" shape="-16.80,-8.00 16.80,-8.00"/>
        <lane id=":Light_16_2" index="2" speed="13.89" length="33.60" shape="-16.80,-4.80 16.80,-4.80"/>
    </edge>
    <edge id=":Light_19" function="internal">
        <lane id=":Light_19_0" index="0" speed="11.36" length="29.67" shape="-16.80,-1.60 -8.75,-0.45 -3.00,3.00 0.45,8.75 1.60,16.80"/>
    </edge>

    <edge id="E0" from="Light" to="DE" priority="-1" length="750.00">
        <lane id="E0_0" index="0" speed="13.89" length="750.00" shape="16.80,-11.20 309.84,-11.20"/>
        <lane id="E0_1" index="1" speed="13.89" length="750.00" shape="16.80,-8.00 309.84,-8.00"/>
        <lane id="E0_2" index="2" speed="13.89" length="750.00" shape="16.80,-4.80 309.84,-4.80"/>
        <lane id="E0_3" index="3" speed="13.89" length="750.00" shape="16.80,-1.60 309.84,-1.60"/>
    </edge>
    <edge id="E1" from="DE" to="Light" priority="-1" length="750.00">
        <lane id="E1_0" index="0" speed="13.89" length="750.00" shape="309.84,11.20 16.80,11.20"/>
        <lane id="E1_1" index="1" speed="13.89" length="750.00" shape="309.84,8.00 16.80,8.00"/>
        <lane id="E1_2" index="2" speed="13.89" length="750.00" shape="309.84,4.80 16.80,4.80"/>
        <lane id="E1_3" index="3" speed="13.89" length="750.00" shape="309.84,1.60 16.80,1.60"/>
    </edge>
    <edge id="N0" from="Light" to="DN" priority="-1" length="750.00">
        <lane id="N0_0" index="0" speed="13.89" length="750.00" shape="11.20,16.80 11.20,309.41"/>
        <lane id="N0_1" index="1" speed="13.89" length="750.00" shape="8.00,16.80 8.00,309.41"/>
        <lane id="N0_2" index="2" speed="13.89" length="750.00" shape="4.80,16.80 4.80,309.41"/>
        <lane id="N0_3" index="3" speed="13.89" length="750.00" shape="1.60,16.80 1.60,309.41"/>
    </edge>
    <edge id="N1" from="DN" to="Light" priority="-1" length="750.00">
        <lane id="N1_0" index="0" speed="13.89" length="750.00" shape="-11.20,309.41 -11.20,16.80"/>
        <lane id="N1_1" index="1" speed="13.89" length="750.00" shape="-8.00,309.41 -8.00,16.80"/>
        <lane id="N1_2" index="2" speed="13.89" length="750.00" shape="-4.80,309.41 -4.80,16.80"/>
        <lane id="N1_3" index="3" speed="13.89" length="750.00" shape="-1.60,309.41 -1.60,16.80"/>
    </edge>
    <edge id="S0" from="Light" to="DS" priority="-1" length="750.00">
        <lane id="S0_0" index="0" speed="13.89" length="750.00" shape="-11.20,-16.80 -11.20,-258.46"/>
        <lane id="S0_1" index="1" speed="13.89" length="750.00" shape="-8.00,-16.80 -8.00,-258.46"/>
        <lane id="S0_2" index="2" speed="13.89" length="750.00" shape="-4.80,-16.80 -4.80,-258.46"/>
        <lane id="S0_3" index="3" speed="13.89" length="750.00" shape="-1.60,-16.80 -1.60,-258.46"/>
    </edge>
    <edge id="S1" from="DS" to="Light" priority="-1" length="750.00">
        <lane id="S1_0" index="0" speed="13.89" length="750.00" shape="11.20,-258.46 11.20,-16.80"/>
        <lane id="S1_1" index="1" speed="13.89" length="750.00" shape="8.00,-258.46 8.00,-16.80"/>
        <lane id="S1_2" index="2" speed="13.89" length="750.00" shape="4.80,-258.46 4.80,-16.80"/>
        <lane id="S1_3" index="3" speed="13.89" length="750.00" shape="1.60,-258.46 1.60,-16.80"/>
    </edge>
    <edge id="W0" from="Light" to="DW" priority="-1" length="750.00">
        <lane id="W0_0" index="0" speed="13.89" length="750.00" shape="-16.80,11.20 -309.74,11.20"/>
        <lane id="W0_1" index="1" speed="13.89" length="750.00" shape="-16.80,8.00 -309.74,8.00"/>
        <lane id="W0_2" index="2" speed="13.89" length="750.00" shape="-16.80,4.80 -309.74,4.80"/>
        <lane id="W0_3" index="3" speed="13.89" length="750.00" shape="-16.80,1.60 -309.74,1.60"/>
    </edge>
    <edge id="W1" from="DW" to="Light" priority="-1" length="750.00">
        <lane id="W1_0" index="0" speed="13.89" length="750.00" shape="-309.74,-11.20 -16.80,-11.20"/>
        <lane id="W1_1" index="1" speed="13.89" length="750.00" shape="-309.74,-8.00 -16.80,-8.00"/>
        <lane id="W1_2" index="2" speed="13.89" length="750.00" shape="-309.74,-4.80 -16.80,-4.80"/>
        <lane id="W1_3" index="3" speed="13.89" length="750.00" shape="-309.74,-1.60 -16.80,-1.60"/>
    </edge>

    <tlLogic id="Light" type="static" programID="0" offset="0">
        <phase duration="100" state="GGGGrrrrrrGGGGrrrrrr"/>
        <phase duration="100" state="yyyyrrrrrryyyyrrrrrr"/>
        <phase duration="100" state="rrrrGrrrrrrrrrGrrrrr"/>
        <phase duration="100" state="rrrryrrrrrrrrryrrrrr"/>
        <phase duration="100" state="rrrrrGGGGrrrrrrGGGGr"/>
        <phase duration="100" state="rrrrryyyyrrrrrryyyyr"/>
        <phase duration="100" state="rrrrrrrrrGrrrrrrrrrG"/>
        <phase duration="100" state="rrrrrrrrryrrrrrrrrry"/>
    </tlLogic>

    <junction id="DE" type="dead_end" x="309.84" y="0.00" incLanes="E0_0 E0_1 E0_2 E0_3" intLanes="" shape="309.84,0.00 309.84,-12.80 309.84,0.00"/>
    <junction id="DN" type="dead_end" x="0.00" y="309.41" incLanes="N0_0 N0_1 N0_2 N0_3" intLanes="" shape="0.00,309.41 12.80,309.41 0.00,309.41"/>
    <junction id="DS" type="dead_end" x="-0.00" y="-258.46" incLanes="S0_0 S0_1 S0_2 S0_3" intLanes="" shape="0.00,-258.46 -12.80,-258.46 0.00,-258.46"/>
    <junction id="DW" type="dead_end" x="-309.74" y="0.00" incLanes="W0_0 W0_1 W0_2 W0_3" intLanes="" shape="-309.74,0.00 -309.74,12.80 -309.74,0.00"/>
    <junction id="Light" type="traffic_light" x="0.00" y="0.00" incLanes="N1_0 N1_1 N1_2 N1_3 E1_0 E1_1 E1_2 E1_3 S1_0 S1_1 S1_2 S1_3 W1_0 W1_1 W1_2 W1_3" intLanes=":Light_0_0 :Light_1_0 :Light_1_1 :Light_1_2 :Light_4_0 :Light_5_0 :Light_6_0 :Light_6_1 :Light_6_2 :Light_9_0 :Light_10_0 :Light_11_0 :Light_11_1 :Light_11_2 :Light_14_0 :Light_15_0 :Light_16_0 :Light_16_1 :Light_16_2 :Light_19_0" shape="-12.80,16.80 12.80,16.80 13.24,14.58 13.80,13.80 14.58,13.24 15.58,12.91 16.80,12.80 16.80,-12.80 14.58,-13.24 13.80,-13.80 13.24,-14.58 12.91,-15.58 12.80,-16.80 -12.80,-16.80 -13.24,-14.58 -13.80,-13.80 -14.58,-13.24 -15.58,-12.91 -16.80,-12.80 -16.80,12.80 -14.58,13.24 -13.80,13.80 -13.24,14.58 -12.91,15.58">
        <request index="0"  response="00000000000000000000" foes="00000000000111000000" cont="0"/>
        <request index="1"  response="00000000000000000000" foes="11111100000111000000" cont="0"/>
        <request index="2"  response="00000000000000000000" foes="11111100000111000000" cont="0"/>
        <request index="3"  response="00000000000000000000" foes="11111100000111000000" cont="0"/>
        <request index="4"  response="00000011100000000000" foes="10000011101111000000" cont="0"/>
        <request index="5"  response="00000011100000000000" foes="00000011100000000000" cont="0"/>
        <request index="6"  response="00000011100000011111" foes="10000011100000011111" cont="0"/>
        <request index="7"  response="00000011100000011111" foes="10000011100000011111" cont="0"/>
        <request index="8"  response="00000011100000011111" foes="10000011100000011111" cont="0"/>
        <request index="9"  response="01110111100000010000" foes="01110111100000010000" cont="0"/>
        <request index="10" response="00000000000000000000" foes="01110000000000000000" cont="0"/>
        <request index="11" response="00000000000000000000" foes="01110000001111110000" cont="0"/>
        <request index="12" response="00000000000000000000" foes="01110000001111110000" cont="0"/>
        <request index="13" response="00000000000000000000" foes="01110000001111110000" cont="0"/>
        <request index="14" response="00000000000000001110" foes="11110000001000001110" cont="0"/>
        <request index="15" response="00000000000000001110" foes="00000000000000001110" cont="0"/>
        <request index="16" response="00000111110000001110" foes="00000111111000001110" cont="0"/>
        <request index="17" response="00000111110000001110" foes="00000111111000001110" cont="0"/>
        <request index="18" response="00000111110000001110" foes="00000111111000001110" cont="0"/>
        <request index="19" response="00000100000111011110" foes="00000100000111011110" cont="0"/>
    </junction>

    <connection from="E1" to="N0" fromLane="0" toLane="0" via=":Light_5_0" tl="Light" linkIndex="5" dir="r" state="o"/>
    <connection from="E1" to="W0" fromLane="0" toLane="0" via=":Light_6_0" tl="Light" linkIndex="6" dir="s" state="o"/>
    <connection from="E1" to="W0" fromLane="1" toLane="1" via=":Light_6_1" tl="Light" linkIndex="7" dir="s" state="o"/>
    <connection from="E1" to="W0" fromLane="2" toLane="2" via=":Light_6_2" tl="Light" linkIndex="8" dir="s" state="o"/>
    <connection from="E1" to="S0" fromLane="3" toLane="3" via=":Light_9_0" tl="Light" linkIndex="9" dir="l" state="o"/>
    <connection from="N1" to="W0" fromLane="0" toLane="0" via=":Light_0_0" tl="Light" linkIndex="0" dir="r" state="O"/>
    <connection from="N1" to="S0" fromLane="0" toLane="0" via=":Light_1_0" tl="Light" linkIndex="1" dir="s" state="O"/>
    <connection from="N1" to="S0" fromLane="1" toLane="1" via=":Light_1_1" tl="Light" linkIndex="2" dir="s" state="O"/>
    <connection from="N1" to="S0" fromLane="2" toLane="2" via=":Light_1_2" tl="Light" linkIndex="3" dir="s" state="O"/>
    <connection from="N1" to="E0" fromLane="3" toLane="3" via=":Light_4_0" tl="Light" linkIndex="4" dir="l" state="o"/>
    <connection from="S1" to="E0" fromLane="0" toLane="0" via=":Light_10_0" tl="Light" linkIndex="10" dir="r" state="O"/>
    <connection from="S1" to="N0" fromLane="0" toLane="0" via=":Light_11_0" tl="Light" linkIndex="11" dir="s" state="O"/>
    <connection from="S1" to="N0" fromLane="1" toLane="1" via=":Light_11_1" tl="Light" linkIndex="12" dir="s" state="O"/>
    <connection from="S1" to="N0" fromLane="2" toLane="2" via=":Light_11_2" tl="Light" linkIndex="13" dir="s" state="O"/>
    <connection from="S1" to="W0" fromLane="3" toLane="3" via=":Light_14_0" tl="Light" linkIndex="14" dir="l" state="o"/>
    <connection from="W1" to="S0" fromLane="0" toLane="0" via=":Light_15_0" tl="Light" linkIndex="15" dir="r" state="o"/>
    <connection from="W1" to="E0" fromLane="0" toLane="0" via=":Light_16_0" tl="Light" linkIndex="16" dir="s" state="o"/>
    <connection from="W1" to="E0" fromLane="1" toLane="1" via=":Light_16_1" tl="Light" linkIndex="17" dir="s" state="o"/>
    <connection from="W1" to="E0" fromLane="2" toLane="2" via=":Light_16_2" tl="Light" linkIndex="18" dir="s" state="o"/>
    <connection from="W1" to="N0" fromLane="3" toLane="3" via=":Light_19_0" tl="Light" linkIndex="19" dir="l" state="o"/>

    <connection from=":Light_0" to="W0" fromLane="0" toLane="0" dir="r" state="M"/>
    <connection from=":Light_1" to="S0" fromLane="0" toLane="0" dir="s" state="M"/>
    <connection from=":Light_1" to="S0" fromLane="1" toLane="1" dir="s" state="M"/>
    <connection from=":Light_1" to="S0" fromLane="2" toLane="2" dir="s" state="M"/>
    <connection from=":Light_4" to="E0" fromLane="0" toLane="3" dir="l" state="M"/>
    <connection from=":Light_5" to="N0" fromLane="0" toLane="0" dir="r" state="M"/>
    <connection from=":Light_6" to="W0" fromLane="0" toLane="0" dir="s" state="M"/>
    <connection from=":Light_6" to="W0" fromLane="1" toLane="1" dir="s" state="M"/>
    <connection from=":Light_6" to="W0" fromLane="2" toLane="2" dir="s" state="M"/>
    <connection from=":Light_9" to="S0" fromLane="0" toLane="3" dir="l" state="M"/>
    <connection from=":Light_10" to="E0" fromLane="0" toLane="0" dir="r" state="M"/>
    <connection from=":Light_11" to="N0" fromLane="0" toLane="0" dir="s" state="M"/>
    <connection from=":Light_11" to="N0" fromLane="1" toLane="1" dir="s" state="M"/>
    <connection from=":Light_11" to="N0" fromLane="2" toLane="2" dir="s" state="M"/>
    <connection from=":Light_14" to="W0" fromLane="0" toLane="3" dir="l" state="M"/>
    <connection from=":Light_15" to="S0" fromLane="0" toLane="0" dir="r" state="M"/>
    <connection from=":Light_16" to="E0" fromLane="0" toLane="0" dir="s" state="M"/>
    <connection from=":Light_16" to="E0" fromLane="1" toLane="1" dir="s" state="M"/>
    <connection from=":Light_16" to="E0" fromLane="2" toLane="2" dir="s" state="M"/>
    <connection from=":Light_19" to="N0" fromLane="0" toLane="3" dir="l" state="M"/>

</net>
